REMARK  Name = 10090485
REMARK  4 active torsions:
REMARK  status: ('A' for Active; 'I' for Inactive)
REMARK    1  A    between atoms: C_11  and  C_13
REMARK    2  A    between atoms: C_12  and  C_15
REMARK    3  A    between atoms: C_21  and  C_27
REMARK    4  A    between atoms: C_24  and  C_28
REMARK                            x       y       z     vdW  Elec       q    Type
REMARK                         _______ _______ _______ _____ _____    ______ ____
ROOT
ATOM      1  N   UNL     1       2.345   2.290  -0.517  0.00  0.00    -0.267 N 
ATOM      2  N   UNL     1       2.833   1.113  -0.891  0.00  0.00    -0.169 NA
ATOM      3  C   UNL     1       1.277   2.254   0.316  0.00  0.00    +0.048 A 
ATOM      4  C   UNL     1       0.836   3.616   0.661  0.00  0.00    +0.057 C 
ATOM      5  C   UNL     1       1.593   4.471  -0.395  0.00  0.00    +0.029 C 
ATOM      6  C   UNL     1       2.789   3.621  -0.870  0.00  0.00    +0.144 C 
ATOM      7  C   UNL     1       1.012   0.931   0.526  0.00  0.00    +0.033 A 
ATOM      8  C   UNL     1       2.009   0.268  -0.247  0.00  0.00    +0.119 A 
ENDROOT
BRANCH   7  10
ATOM      9  N   UNL     1      -2.093  -0.412   3.042  0.00  0.00    -0.255 NA
ATOM     10  C   UNL     1      -0.048   0.438   1.358  0.00  0.00    -0.003 A 
ATOM     11  C   UNL     1      -0.698  -0.779   1.112  0.00  0.00    +0.009 A 
ATOM     12  C   UNL     1      -0.421   1.223   2.440  0.00  0.00    +0.029 A 
ATOM     13  C   UNL     1      -1.729  -1.171   1.991  0.00  0.00    +0.072 A 
ATOM     14  C   UNL     1      -0.344  -1.596   0.025  0.00  0.00    +0.023 A 
ATOM     15  C   UNL     1      -1.441   0.756   3.244  0.00  0.00    +0.112 A 
ATOM     16  C   UNL     1      -1.006  -2.800  -0.196  0.00  0.00    +0.037 A 
ATOM     17  C   UNL     1      -2.374  -2.380   1.747  0.00  0.00    +0.029 A 
ATOM     18  C   UNL     1      -2.022  -3.192   0.667  0.00  0.00    +0.015 A 
BRANCH  16  21
ATOM     19  O   UNL     1      -1.471  -4.374  -1.885  0.00  0.00    -0.270 OA
ATOM     20  N   UNL     1       0.683  -3.595  -1.762  0.00  0.00    -0.325 N 
ATOM     21  C   UNL     1      -0.637  -3.644  -1.321  0.00  0.00    +0.242 C 
ATOM     22  H   UNL     1       1.421  -3.029  -1.366  0.00  0.00    +0.145 HD
ATOM     23  H   UNL     1       0.964  -4.170  -2.551  0.00  0.00    +0.145 HD
ENDBRANCH  16  21
ENDBRANCH   7  10
BRANCH   8  25
ATOM     24  N   UNL     1       1.822  -1.892   0.686  0.00  0.00    -0.250 NA
ATOM     25  C   UNL     1       2.190  -1.157  -0.383  0.00  0.00    +0.092 A 
ATOM     26  C   UNL     1       2.706  -1.679  -1.554  0.00  0.00    +0.030 A 
ATOM     27  C   UNL     1       1.981  -3.230   0.570  0.00  0.00    +0.039 A 
ATOM     28  C   UNL     1       2.854  -3.059  -1.635  0.00  0.00    +0.004 A 
ATOM     29  C   UNL     1       2.487  -3.856  -0.557  0.00  0.00    +0.023 A 
ATOM     30  C   UNL     1       1.579  -4.056   1.747  0.00  0.00    +0.065 C 
ENDBRANCH   8  25
TORSDOF 3
