10090485
  -OEChem-05182500533D

 47 51  0     0  0  0  0  0  0999 V2000
   -2.4347    0.7234   -3.1624 O   0  0  0  0  0  0  0  0  0  0  0  0
    2.3447    2.2901   -0.5168 N   0  0  0  0  0  0  0  0  0  0  0  0
    2.8329    1.1132   -0.8911 N   0  0  0  0  0  0  0  0  0  0  0  0
    1.0670   -1.8965   -0.2833 N   0  0  0  0  0  0  0  0  0  0  0  0
   -2.0236   -0.5150    3.0696 N   0  0  0  0  0  0  0  0  0  0  0  0
   -4.5803    0.0254   -2.7522 N   0  0  0  0  0  0  0  0  0  0  0  0
    1.2773    2.2538    0.3157 C   0  0  0  0  0  0  0  0  0  0  0  0
    0.8357    3.6159    0.6606 C   0  0  0  0  0  0  0  0  0  0  0  0
    1.5934    4.4714   -0.3947 C   0  0  0  0  0  0  0  0  0  0  0  0
    2.7894    3.6209   -0.8697 C   0  0  0  0  0  0  0  0  0  0  0  0
    1.0121    0.9307    0.5265 C   0  0  0  0  0  0  0  0  0  0  0  0
    2.0085    0.2682   -0.2470 C   0  0  0  0  0  0  0  0  0  0  0  0
   -0.0482    0.4381    1.3576 C   0  0  0  0  0  0  0  0  0  0  0  0
   -1.3332    0.1727    0.8656 C   0  0  0  0  0  0  0  0  0  0  0  0
    2.1904   -1.1568   -0.3828 C   0  0  0  0  0  0  0  0  0  0  0  0
    0.2435    0.2270    2.6975 C   0  0  0  0  0  0  0  0  0  0  0  0
   -2.3038   -0.3092    1.7689 C   0  0  0  0  0  0  0  0  0  0  0  0
   -1.6604    0.3759   -0.4858 C   0  0  0  0  0  0  0  0  0  0  0  0
    3.4526   -1.6736   -0.6052 C   0  0  0  0  0  0  0  0  0  0  0  0
   -0.7712   -0.2464    3.5044 C   0  0  0  0  0  0  0  0  0  0  0  0
   -2.9448    0.1040   -0.9480 C   0  0  0  0  0  0  0  0  0  0  0  0
   -3.5801   -0.5728    1.2795 C   0  0  0  0  0  0  0  0  0  0  0  0
   -3.9056   -0.3710   -0.0640 C   0  0  0  0  0  0  0  0  0  0  0  0
    1.2216   -3.2331   -0.4152 C   0  0  0  0  0  0  0  0  0  0  0  0
    3.5714   -3.0528   -0.7355 C   0  0  0  0  0  0  0  0  0  0  0  0
    2.4394   -3.8546   -0.6399 C   0  0  0  0  0  0  0  0  0  0  0  0
   -3.2804    0.3148   -2.3471 C   0  0  0  0  0  0  0  0  0  0  0  0
   -0.0136   -4.0636   -0.3051 C   0  0  0  0  0  0  0  0  0  0  0  0
   -0.2462    3.7492    0.5770 H   0  0  0  0  0  0  0  0  0  0  0  0
    1.1573    3.8813    1.6728 H   0  0  0  0  0  0  0  0  0  0  0  0
    0.9264    4.6598   -1.2464 H   0  0  0  0  0  0  0  0  0  0  0  0
    1.9010    5.4447   -0.0004 H   0  0  0  0  0  0  0  0  0  0  0  0
    2.9566    3.6820   -1.9472 H   0  0  0  0  0  0  0  0  0  0  0  0
    3.7020    3.8302   -0.3053 H   0  0  0  0  0  0  0  0  0  0  0  0
    1.2265    0.4201    3.1150 H   0  0  0  0  0  0  0  0  0  0  0  0
   -0.9184    0.7463   -1.1888 H   0  0  0  0  0  0  0  0  0  0  0  0
    4.3409   -1.0542   -0.6734 H   0  0  0  0  0  0  0  0  0  0  0  0
   -0.6019   -0.4308    4.5602 H   0  0  0  0  0  0  0  0  0  0  0  0
   -4.3499   -0.9459    1.9529 H   0  0  0  0  0  0  0  0  0  0  0  0
   -4.9251   -0.6063   -0.3453 H   0  0  0  0  0  0  0  0  0  0  0  0
    4.5444   -3.5024   -0.9093 H   0  0  0  0  0  0  0  0  0  0  0  0
    2.5196   -4.9318   -0.7390 H   0  0  0  0  0  0  0  0  0  0  0  0
   -0.8937   -3.4361   -0.1287 H   0  0  0  0  0  0  0  0  0  0  0  0
   -0.1791   -4.6248   -1.2301 H   0  0  0  0  0  0  0  0  0  0  0  0
    0.0729   -4.7659    0.5300 H   0  0  0  0  0  0  0  0  0  0  0  0
   -5.3261   -0.3136   -2.1586 H   0  0  0  0  0  0  0  0  0  0  0  0
   -4.8380    0.1575   -3.7252 H   0  0  0  0  0  0  0  0  0  0  0  0
  1 27  2  0  0  0  0
  2  3  1  0  0  0  0
  2  7  1  0  0  0  0
  2 10  1  0  0  0  0
  3 12  2  0  0  0  0
  4 15  1  0  0  0  0
  4 24  2  0  0  0  0
  5 17  2  0  0  0  0
  5 20  1  0  0  0  0
  6 27  1  0  0  0  0
  6 46  1  0  0  0  0
  6 47  1  0  0  0  0
  7  8  1  0  0  0  0
  7 11  2  0  0  0  0
  8  9  1  0  0  0  0
  8 29  1  0  0  0  0
  8 30  1  0  0  0  0
  9 10  1  0  0  0  0
  9 31  1  0  0  0  0
  9 32  1  0  0  0  0
 10 33  1  0  0  0  0
 10 34  1  0  0  0  0
 11 12  1  0  0  0  0
 11 13  1  0  0  0  0
 12 15  1  0  0  0  0
 13 14  2  0  0  0  0
 13 16  1  0  0  0  0
 14 17  1  0  0  0  0
 14 18  1  0  0  0  0
 15 19  2  0  0  0  0
 16 20  2  0  0  0  0
 16 35  1  0  0  0  0
 17 22  1  0  0  0  0
 18 21  2  0  0  0  0
 18 36  1  0  0  0  0
 19 25  1  0  0  0  0
 19 37  1  0  0  0  0
 20 38  1  0  0  0  0
 21 23  1  0  0  0  0
 21 27  1  0  0  0  0
 22 23  2  0  0  0  0
 22 39  1  0  0  0  0
 23 40  1  0  0  0  0
 24 26  1  0  0  0  0
 24 28  1  0  0  0  0
 25 26  2  0  0  0  0
 25 41  1  0  0  0  0
 26 42  1  0  0  0  0
 28 43  1  0  0  0  0
 28 44  1  0  0  0  0
 28 45  1  0  0  0  0
M  END
> <PUBCHEM_COMPOUND_CID>
10090485

> <PUBCHEM_CONFORMER_RMSD>
0.8

> <PUBCHEM_CONFORMER_DIVERSEORDER>
1
8
7
2
10
4
3
6
5
12
11
9

> <PUBCHEM_MMFF94_PARTIAL_CHARGES>
36
1 -0.57
10 0.26
11 -0.05
12 0.23
13 0.05
15 0.36
16 -0.15
17 0.31
18 -0.15
19 -0.15
2 0.31
20 0.16
21 0.09
22 -0.15
23 -0.15
24 0.17
25 -0.15
26 -0.15
27 0.54
28 0.14
3 -0.71
35 0.15
36 0.15
37 0.15
38 0.15
39 0.15
4 -0.62
40 0.15
41 0.15
42 0.15
46 0.37
47 0.37
5 -0.62
6 -0.8
7 -0.33
8 0.18

> <PUBCHEM_EFFECTIVE_ROTOR_COUNT>
3.6

> <PUBCHEM_PHARMACOPHORE_FEATURES>
10
1 1 acceptor
1 3 acceptor
1 4 acceptor
1 5 acceptor
1 6 donor
5 2 3 7 11 12 rings
5 2 7 8 9 10 rings
6 14 17 18 21 22 23 rings
6 4 15 19 24 25 26 rings
6 5 13 14 16 17 20 rings

> <PUBCHEM_HEAVY_ATOM_COUNT>
28

> <PUBCHEM_ATOM_DEF_STEREO_COUNT>
0

> <PUBCHEM_ATOM_UDEF_STEREO_COUNT>
0

> <PUBCHEM_BOND_DEF_STEREO_COUNT>
0

> <PUBCHEM_BOND_UDEF_STEREO_COUNT>
0

> <PUBCHEM_ISOTOPIC_ATOM_COUNT>
0

> <PUBCHEM_COMPONENT_COUNT>
1

> <PUBCHEM_CACTVS_TAUTO_COUNT>
2

> <PUBCHEM_CONFORMER_ID>
0099F7F500000001

> <PUBCHEM_MMFF94_ENERGY>
90.8425

> <PUBCHEM_FEATURE_SELFOVERLAP>
51.073

> <PUBCHEM_SHAPE_FINGERPRINT>
10165383 225 17831049035765553564
1100329 8 18125181543933941012
11582403 64 17536277647760118537
11621639 254 17621649018706096062
11725454 13 17679285619047464417
12156800 1 15745791316600515073
12553582 1 17906772165742911194
12788726 201 17399510122309357370
13004483 165 17835519319294626946
13009979 54 17346604027852225246
13681431 1 18410290268550270664
13911987 19 18119278184289497862
14747281 78 18115890532750391877
14787075 74 17202741805308620242
15131766 46 14791175143862608094
15324115 91 17842243099771551271
15324884 4 17393353282364341552
1813 80 17915197723119517294
19930381 70 18338243777129279841
20600515 1 15123503658533339859
21330990 113 14312299862228221265
23419403 2 17752519604648495808
238 59 18337100267539869879
266924 78 18268447882540942841
44802255 64 16161081102614478550
46194498 28 18262219085140546637
550186 7 17024313148463294980
57527295 17 17897999132305013975
59025328 239 17984112916966813478
5951187 136 17535429757361189317
59755656 520 17335666305692128376
81228 2 17685783419746737088

> <PUBCHEM_SHAPE_MULTIPOLES>
545.45
6.15
5.01
2.78
3.51
1.36
-0.94
-2.23
3.6
-7.02
1.43
3.78
0.11
0.43

> <PUBCHEM_SHAPE_SELFOVERLAP>
1235.701

> <PUBCHEM_SHAPE_VOLUME>
287.1

> <PUBCHEM_COORDINATE_TYPE>
2
5
10

$$$$
